/*--------------------------------*- C++ -*----------------------------------*\
  =========                 |
  \\      /  F ield         | OpenFOAM: The Open Source CFD Toolbox
   \\    /   O peration     | Website:  https://openfoam.org
    \\  /    A nd           | Version:  dev
     \\/     M anipulation  |
\*---------------------------------------------------------------------------*/
FoamFile
{
    format      ascii;
    class       dictionary;
    location    "system";
    object      functions;
}
// * * * * * * * * * * * * * * * * * * * * * * * * * * * * * * * * * * * * * //

#includeFunc massTransport(rho, phi=phiv, diffusivity=none, executeAtStart=no)
#includeFunc scalarTransport(T, diffusivity=none, executeAtStart=no)

minMax
{
    type coded;
    // Load the library containing the 'coded' functionObject
    libs            ("libutilityFunctionObjects.so" "libfiniteVolumeAtmosFOAM.so");

    codeInclude
    #{
        #include "volFields.H"
    #};

    codeExecute
    #{
        const volScalarField& T
        (
            mesh().lookupObject<volScalarField>("T")
        );

        Info << "T goes from = " << min(T).value() << " to 1 + " 
             << max(T).value()-1 << endl;
    #};
}

// ************************************************************************* //
