FoamFile
{
    version         1.4;
    format          ascii;

    root            "/export/lime/data-04/sws02hs/OpenFOAM/sws02hs-1.4.1/run/shallowWater";
    case            "bucky4_30";
    instance        "constant";
    local           "";

    class           dictionary;
    object          gmtDict;
}

// How to plot
//projection "G180/30/18c";
projection "Q180/18c";
projection2D latLon;
plotBoundaryDots false;

FieldsToPlot
(
    [T rawValues 0 0.95 0.005 "$GMTU/colours/wh-bl-gr-ye-re.cpt"]
    [anteDV   vectors 10.1 1 "black"]
//    [anteDV   vectors 0.1 1 "black"]
//    [U  vectors 2.1 7 "green"]
    [Co colouredContours 0 15 1 "$GMTU/colours/white_black.cpt"]
);

// options
region "10/350/-90/90";
//region "5/350/-85/85";
//region "270/340/-60/-20";
boundaryMarks "a60/a60";
separateLegend true;
annotate "minMax 180 -105";
lonMin 360;
