FoamFile
{
    version         1.4;
    format          ascii;

    root            "/export/lime/data-04/sws02hs/OpenFOAM/sws02hs-1.4.1/run/shallowWater";
    case            "bucky4_30";
    instance        "constant";
    local           "";

    class           dictionary;
    object          gmtDict;
}

// How to plot
projection "Q180/18c";
projection2D latLon;
plotBoundaryDots false;

FieldsToPlot
(
    [Co filledContours 0 2 0.1 "$GMTU/colours/red_white_blue.cpt"]
    [U  vectors 5.1 13 "black"]
);

// options
//region "5/350/-85/85";
boundaryMarks "a60/a60";
separateLegend true;
annotate "minMax 180 -105";

