/*--------------------------------*- C++ -*----------------------------------*\
  =========                 |
  \\      /  F ield         | OpenFOAM: The Open Source CFD Toolbox
   \\    /   O peration     | Website:  https://openfoam.org
    \\  /    A nd           | Version:  13
     \\/     M anipulation  |
\*---------------------------------------------------------------------------*/
FoamFile
{
    format      binary;
    class       polyBoundaryMesh;
    location    "constant/polyMesh";
    object      boundary;
}
// * * * * * * * * * * * * * * * * * * * * * * * * * * * * * * * * * * * * * //

3
(
    sides
    {
        type            wall;
        inGroups        List<word> 1(wall);
        nFaces          0;
        startFace       11100;
    }
    originalPatch
    {
        type            patch;
        nFaces          5492;
        startFace       11100;
    }
    otherSide
    {
        type            patch;
        nFaces          5492;
        startFace       16592;
    }
)

// ************************************************************************* //
