FoamFile {
        version         1.4;
        format          ascii;

        root            "";
        case            "";
        instance        "constant";
        local           "";

        class           dictionary;
        object          gmtDict;
}

projection "X18c/18c";
projection2D XY;
plotBoundaryDots false;

FieldsToPlot
(
    [T filledContours -0.2  1.2 0.1 "$GMTU/colours/wh-bl-gr-ye-re.cpt"]
);

//region "0e3/450e3/0/30e3";
//boundaryMarks "100e3/10e3WSen";
//separateLegend true;
