FoamFile {
        version         1.4;
        format          ascii;

        root            "";
        case            "";
        instance        "constant";
        local           "";

        class           dictionary;
        object          gmtDict;
}

projection "X18c/18c";
projection2D XY;
plotBoundaryDots false;

FieldsToPlot
(
    [rho filledContours 0.575 1.025 0.05 "$GMTU/colours/red_white_blue.cpt"]
    [U vectors 3 34 "black"]
);

//region "0e3/450e3/0/30e3";
//boundaryMarks "100e3/10e3WSen";
//separateLegend true;
annotate "minMax -480 520";
