FoamFile {
        version         1.4;
        format          ascii;

        root            "";
        case            "";
        instance        "constant";
        local           "";

        class           dictionary;
        object          gmtDict;
}

projection "X18c/18c";
projection2D XY;
plotBoundaryDots false;

FieldsToPlot
(
    //[T_analytic filledContours -1.025 1.025 0.05 "$GMTU/colours/red_white_blue.cpt"]
    [Terror filledContours 0 0 0 "$GMTU/colours/red_white_blue.cpt"]
    [T contours 0.05  1.05   0.1 "1,black"]
    [T contours -1 0  0.01 "0.5,black,5_5:0"]
    [T contours 0 100 10 "0.5,black,1_1:0"]
);

//region "0e3/450e3/0/30e3";
//boundaryMarks "100e3/10e3WSen";
separateLegend false;
annotate "minMax 0 0";
