/*--------------------------------*- C++ -*----------------------------------*\
  =========                 |
  \\      /  F ield         | OpenFOAM: The Open Source CFD Toolbox
   \\    /   O peration     | Website:  https://openfoam.org
    \\  /    A nd           | Version:  dev
     \\/     M anipulation  |
\*---------------------------------------------------------------------------*/
FoamFile
{
    format      ascii;
    class       dictionary;
    location    "system";
    object      fvSolution;
}
// * * * * * * * * * * * * * * * * * * * * * * * * * * * * * * * * * * * * * //

nOuterCorrs 1;
nPressureCorrs 1;
nNonOrthogCorrs 1;
timeOffCenter 1;

solvers
{
    "U"
    {
        solver          GAMG; //PBiCGStab; //PBiCG; //smoothSolver;
        //preconditioner  DILU;
        smoother        DILUGaussSeidel; //symGaussSeidel;
        tolerance       1e-6;
        relTol          0;
    }
    "h"
    {
        solver          GAMG; //PBiCGStab; //PBiCG; //smoothSolver;
        //preconditioner  DILU;
        smoother        symGaussSeidel;
        tolerance       1e-6;
        relTol          0;
    }
}

initialisation
{
    maxIters 100;
}

// ************************************************************************* //
