/*--------------------------------*- C++ -*----------------------------------*\
  =========                 |
  \\      /  F ield         | OpenFOAM: The Open Source CFD Toolbox
   \\    /   O peration     | Website:  https://openfoam.org
    \\  /    A nd           | Version:  dev
     \\/     M anipulation  |
\*---------------------------------------------------------------------------*/
FoamFile
{
    format      ascii;
    class       dictionary;
    location    "system";
    object      functions;
}
// * * * * * * * * * * * * * * * * * * * * * * * * * * * * * * * * * * * * * //

#includeFunc multiScalarRKTransport
(
    nFields=1,
    fields=(T),
    FCTiters=(1),
    advectingFlux=phi,
    massFlux=none,
    RK_ButcherCoeffs=3 3((1 0 0)
                        (0.25 0.250 0)
                        (0.16666666667 0.16666666667 0.66666666666)),
    gammaCoeffs=(2.5 6.5),
    correctionScheme=cubicUpwind
)

minMax
{
    type coded;
    // Load the library containing the 'coded' functionObject
    libs            ("libutilityFunctionObjects.so" "libfiniteVolumeAtmosFOAM.so");

    codeInclude
    #{
        #include "volFields.H"
    #};

    codeExecute
    #{
        const volScalarField& T
        (
            mesh().lookupObject<volScalarField>("T")
        );

        Info << "T goes from = " << min(T).value() << " to 1 + " 
             << max(T).value()-1 << endl;
    #};
}

// ************************************************************************* //
